/*---------------------------------------------------------------------------*\
| =========                 |                                                 |
| \\      /  F ield         | OpenFOAM: The Open Source CFD Toolbox           |
|  \\    /   O peration     | Version:  5.x                                   |
|   \\  /    A nd           | Web:      www.OpenFOAM.org                      |
|    \\/     M anipulation  |                                                 |
\*---------------------------------------------------------------------------*/
Build  : 5.x-538044ac05c4
Exec   : functionProcessor -overwrite
Date   : Dec 11 2017
Time   : 05:53:58
Host   : "inabower-PC"
PID    : 26861
I/O    : uncollated
Case   : /home/inabower/OpenFOAM_TF/OpenFOAM4.1-utilities/functionProcessor/testCase
nProcs : 1
sigFpe : Enabling floating point exception trapping (FOAM_SIGFPE).
fileModificationChecking : Monitoring run-time modified files using timeStampMaster (fileModificationSkew 10)
allowSystemOperations : Allowing user-supplied system call operations

// * * * * * * * * * * * * * * * * * * * * * * * * * * * * * * * * * * * * * //
Create time

Create mesh for time = 0

Reading decomposeParDict

Using dynamicCode for functionObject processor at line 56 in "/home/inabower/OpenFOAM_TF/OpenFOAM4.1-utilities/functionProcessor/testCase/system/controlDict.functions.processor"
Creating new library in "dynamicCode/processor/platforms/linux64GccDPInt32Opt/lib/libprocessor_fa6bcb9352550c3007ffd513d48777a6a88042f2.so"
Invoking "wmake -s libso /home/inabower/OpenFOAM_TF/OpenFOAM4.1-utilities/functionProcessor/testCase/dynamicCode/processor"
wmake libso /home/inabower/OpenFOAM_TF/OpenFOAM4.1-utilities/functionProcessor/testCase/dynamicCode/processor
    ln: ./lnInclude
    wmkdep: functionObjectTemplate.C
    Ctoo: functionObjectTemplate.C
/home/inabower/OpenFOAM_TF/OpenFOAM4.1-utilities/functionProcessor/testCase/system/controlDict.functions.processor: In member function ‘virtual bool Foam::processorFunctionObject::end()’:
/home/inabower/OpenFOAM_TF/OpenFOAM4.1-utilities/functionProcessor/testCase/system/controlDict.functions.processor:75:30: warning: unused variable ‘r’ [-Wunused-variable]
    ld: /home/inabower/OpenFOAM_TF/OpenFOAM4.1-utilities/functionProcessor/testCase/dynamicCode/processor/../platforms/linux64GccDPInt32Opt/lib/libprocessor_fa6bcb9352550c3007ffd513d48777a6a88042f2.so
coded Function Start
processor0 : 69120 cells
processor1 : 76800 cells
processor2 : 61440 cells
processor3 : 70272 cells
error : 0cells

End

